Version 4
SHEET 1 2652 1736
WIRE 1536 1280 1440 1280
WIRE 1712 1280 1536 1280
WIRE 1440 1296 1440 1280
WIRE 1712 1296 1712 1280
WIRE 1536 1360 1536 1280
WIRE 1552 1360 1536 1360
WIRE 1920 1360 1872 1360
WIRE 2048 1360 2000 1360
WIRE 1440 1392 1440 1376
WIRE 1440 1472 1424 1472
WIRE 1552 1472 1520 1472
WIRE 1920 1472 1872 1472
WIRE 2048 1472 2048 1360
WIRE 2048 1472 2000 1472
WIRE 2160 1472 2048 1472
WIRE 2256 1472 2160 1472
WIRE 2352 1472 2256 1472
WIRE 2048 1488 2048 1472
WIRE 2160 1488 2160 1472
WIRE 2256 1488 2256 1472
WIRE 2352 1488 2352 1472
WIRE 1552 1584 1536 1584
WIRE 2048 1584 2048 1568
WIRE 2048 1584 1872 1584
WIRE 2160 1584 2160 1552
WIRE 2160 1584 2048 1584
WIRE 2256 1584 2256 1552
WIRE 2352 1584 2352 1568
WIRE 2048 1600 2048 1584
WIRE 1648 1680 1648 1664
WIRE 1776 1680 1776 1664
WIRE 2048 1696 2048 1680
FLAG 1776 1680 0
FLAG 1648 1680 0
FLAG 1440 1392 0
FLAG 1536 1584 0
FLAG 2352 1584 0
FLAG 2048 1696 0
FLAG 2256 1584 0
FLAG 1424 1472 0
FLAG 1440 1280 IN
FLAG 2352 1472 OUT
SYMBOL ind 1904 1488 R270
WINDOW 0 32 56 VTop 2
WINDOW 3 5 56 VBottom 2
SYMATTR InstName L1
SYMATTR Value 220n
SYMATTR SpiceLine Rser=2m
SYMBOL RES 2032 1472 R0
SYMATTR InstName R1
SYMATTR Value 200K
SYMBOL VOLTAGE 1440 1280 R0
SYMATTR InstName V1
SYMATTR Value 4
SYMBOL res 2032 1584 R0
SYMATTR InstName R2
SYMATTR Value 200K
SYMBOL cap 2240 1488 R0
SYMATTR InstName C1
SYMATTR Value 47µ
SYMBOL res 2016 1344 R90
WINDOW 0 0 56 VBottom 2
WINDOW 3 32 56 VTop 2
SYMATTR InstName R4
SYMATTR Value 500K
SYMBOL cap 2144 1488 R0
SYMATTR InstName C3
SYMATTR Value 4.7p
SYMBOL res 2336 1472 R0
SYMATTR InstName Rload
SYMATTR Value .2
SYMBOL LTC3309A 1712 1456 R0
SYMATTR InstName U1
SYMBOL res 1536 1456 R90
WINDOW 0 0 56 VBottom 2
WINDOW 3 32 56 VTop 2
SYMATTR InstName R3
SYMATTR Value 31.6K
TEXT 2200 1696 Left 2 !.tran 1.5m startup
